26
Energy =
C     0.7094520    1.3315580   -0.0165690
C    -0.7094490    1.3315600    0.0165690
C     1.3833630    2.5671560   -0.0499630
C    -1.3833580    2.5671590    0.0499630
C     0.6976450    3.7811170   -0.0293430
C    -0.6976370    3.7811190    0.0293430
H     1.2526730    4.7216700   -0.0488780
H    -1.2526630    4.7216730    0.0488780
H    -2.4755100    2.5655820    0.0629930
H     2.4755150    2.5655770   -0.0629930
C    -1.5366640    0.0951350   -0.0110960
C    -1.4005320   -0.9319970   -0.9179830
C    -2.6383340   -0.1397350    0.8855740
C     1.5366640    0.0951310    0.0110960
C     2.6383360   -0.1397390   -0.8855710
C     3.2921610   -1.3186500   -0.6481460
H     2.9110890    0.5456790   -1.6887620
C     1.4005280   -0.9320020    0.9179810
S     2.5868470   -2.1764200    0.6886600
C    -3.2921610   -1.3186450    0.6481490
S    -2.5868530   -2.1764130   -0.6886620
H    -2.9110830    0.5456820    1.6887670
H    -0.6651960   -1.0247930   -1.7134680
H    -4.1416160   -1.7389510    1.1822980
H     0.6651900   -1.0247980    1.7134640
H     4.1416170   -1.7389560   -1.1822940
